Mineral: Gold
Rruff sample: R070279
Ideal chemistry: Au
Locality: Agua Fria Canyon Mine, Mariposa County, California, USA
Source: Michael Scott
Description: Metallic gold yellow thin nugget
Diffraction sample description: Hammered into thin foil
Measured chemistry: (Au_0.985_Ag_0.010_Cu_0.005_)_Î£=1_
Cell parameters: a: 4.0792(2) b: 4.0792(2) c: 4.0792(2) alpha: 90 beta: 90 gamma: 90 volume: 67.879(9) crystal system: cubic
x	intensity
5	0
5.22	11.5354
5.44	9.78393
5.66	14.6995
5.88	11.474
6.1	20.0886
6.32	6.50632
6.54	12.4805
6.76	10.5156
6.98	11.2502
7.2	2.66764
7.42	9.25168
7.64	8.01514
7.86	9.07555
8.08	7.14323
8.3	12.6572
8.52	3.97972
8.74	14.2367
8.96	23.7065
9.18	3.58357
9.4	10.8504
9.62	7.83526
9.84	7.14317
10.06	5.39713
10.28	16.7798
10.5	7.19041
10.72	20.2359
10.94	6.76054
11.16	13.7172
11.38	7.87587
11.6	0.329107
11.82	10.9043
12.04	4.50088
12.26	21.7791
12.48	12.1828
12.7	14.8572
12.92	17.0893
13.14	21.3338
13.36	6.86948
13.58	0.876499
13.8	18.8266
14.02	6.24486
14.24	16.0351
14.46	7.45697
14.68	10.1621
14.9	1.79873
15.12	17.1769
15.34	15.7194
15.56	15.4995
15.78	12.0663
16	12.4434
16.22	9.78986
16.44	11.6642
16.66	3.33236
16.88	9.29045
17.1	6.80866
17.32	11.3801
17.54	16.1547
17.76	7.80176
17.98	5.49059
18.2	19.6515
18.42	8.30429
18.64	0.771893
18.86	4.1729
19.08	20.8143
19.3	8.30234
19.52	6.81245
19.74	6.39508
19.96	9.4651
20.18	2.51355
20.4	10.578
20.62	5.34494
20.84	10.2782
21.06	3.28186
21.28	6.12598
21.5	3.16748
21.72	4.06739
21.94	5.16645
22.16	11.2392
22.38	8.90683
22.6	9.13429
22.82	1.62287
23.04	10.8955
23.26	17.1246
23.48	14.4931
23.7	3.8358
23.92	11.7939
24.14	1.94197
24.36	13.3347
24.58	12.0931
24.8	8.08102
25.02	0.005242
25.24	8.47559
25.46	6.00498
25.68	6.84623
25.9	6.46612
26.12	14.1481
26.34	8.97088
26.56	12.7299
26.78	5.65263
27	1.57634
27.22	6.04507
27.44	16.5882
27.66	8.13879
27.88	5.13158
28.1	11.0509
28.32	1.84325
28.54	2.82817
28.76	0.932962
28.98	5.11563
29.2	12.0529
29.42	1.16109
29.64	1.22074
29.86	0.251505
30.08	14.7951
30.3	19.7381
30.52	0.973761
30.74	7.0663
30.96	18.1775
31.18	5.01999
31.4	19.0378
31.62	7.83621
31.84	9.14393
32.06	13.228
32.28	15.1798
32.5	3.05965
32.72	6.0226
32.94	7.75625
33.16	7.56862
33.38	8.28091
33.6	1.9438
33.82	8.76713
34.04	7.60584
34.26	6.4711
34.48	48.1209
34.7	1.28496
34.92	7.64015
35.14	7.12118
35.36	1.6253
35.58	5.99307
35.8	13.6219
36.02	1.50168
36.24	9.46492
36.46	4.08322
36.68	12.3828
36.9	4.2166
37.12	3.3144
37.34	17.1263
37.56	9.1342
37.78	28.3584
38	95.5555
38.22	886.909
38.44	826.291
38.66	88.0008
38.88	14.3186
39.1	4.47434
39.32	11.0239
39.54	2.51335
39.76	5.09523
39.98	12.6083
40.2	9.43652
40.42	12.9601
40.64	1.473
40.86	5.09494
41.08	6.16608
41.3	5.8338
41.52	14.5275
41.74	18.1021
41.96	2.85713
42.18	6.79521
42.4	8.7899
42.62	15.3575
42.84	11.4955
43.06	8.04093
43.28	8.33208
43.5	4.29701
43.72	9.18559
43.94	40.578
44.16	79.0854
44.38	464.983
44.6	591.524
44.82	114.629
45.04	33.0341
45.26	17.5225
45.48	6.13178
45.7	8.67166
45.92	3.67807
46.14	0.37372
46.36	9.99679
46.58	1.02125
46.8	6.03641
47.02	5.33463
47.24	8.99648
47.46	12.2841
47.68	5.72408
47.9	5.17141
48.12	9.53492
48.34	1.61464
48.56	8.74767
48.78	9.25471
49	10.4431
49.22	8.62718
49.44	11.5375
49.66	8.40186
49.88	3.40875
50.1	12.311
50.32	8.48012
50.54	4.45832
50.76	7.29979
50.98	18.2441
51.2	9.02518
51.42	5.30266
51.64	8.35584
51.86	4.47486
52.08	6.49822
52.3	9.24092
52.52	1.41931
52.74	8.34225
52.96	5.62917
53.18	9.58239
53.4	15.9246
53.62	2.00793
53.84	15.0787
54.06	8.22116
54.28	11.38
54.5	9.70414
54.72	10.3806
54.94	6.5751
55.16	8.53409
55.38	2.55199
55.6	1.50687
55.82	12.3031
56.04	8.19135
56.26	7.86906
56.48	12.8238
56.7	14.5871
56.92	6.31703
57.14	2.14839
57.36	5.83412
57.58	0.301881
57.8	21.5784
58.02	12.6145
58.24	6.9131
58.46	0.115043
58.68	4.36486
58.9	8.67163
59.12	0.234795
59.34	7.71313
59.56	3.42773
59.78	6.44127
60	2.46176
60.22	7.73542
60.44	2.76499
60.66	2.32965
60.88	8.09113
61.1	0.962951
61.32	12.9487
61.54	10.7977
61.76	5.54297
61.98	7.78357
62.2	11.3879
62.42	10.166
62.64	0.7349
62.86	9.53009
63.08	9.68053
63.3	13.6237
63.52	0.192453
63.74	4.02335
63.96	9.06804
64.18	18.2801
64.4	65.1458
64.62	198.267
64.84	205.811
65.06	75.8688
65.28	22.5658
65.5	10.8246
65.72	3.26117
65.94	8.60256
66.16	7.83936
66.38	11.9579
66.6	2.02772
66.82	10.0804
67.04	4.37442
67.26	11.9019
67.48	7.15421
67.7	6.30559
67.92	7.29978
68.14	9.47852
68.36	8.62781
68.58	3.61001
68.8	1.49408
69.02	7.45153
69.24	4.42942
69.46	5.35204
69.68	11.5787
69.9	4.7407
70.12	9.68798
70.34	1.72608
70.56	10.6384
70.78	6.19721
71	6.49676
71.22	6.52822
71.44	7.67333
71.66	8.61643
71.88	2.7532
72.1	11.7379
72.32	7.93866
72.54	10.9568
72.76	5.37554
72.98	11.3138
73.2	5.28111
73.42	10.8806
73.64	1.85755
73.86	8.59117
74.08	6.3234
74.3	14.5746
74.52	7.49886
74.74	15.2361
74.96	6.06513
75.18	3.17899
75.4	6.92443
75.62	0.245947
75.84	12.2663
76.06	7.68979
76.28	14.0474
76.5	2.92009
76.72	0.20635
76.94	20.5714
77.16	36.8993
77.38	85.6465
77.6	251.044
77.82	236.059
78.04	137.163
78.26	47.2782
78.48	19.7202
78.7	16.2077
78.92	8.04349
79.14	6.41259
79.36	12.2314
79.58	5.84741
79.8	8.90624
80.02	2.04841
80.24	11.2642
80.46	1.72388
80.68	4.34008
80.9	8.75563
81.12	15.9473
81.34	0.146288
81.56	23.838
81.78	84.49
82	61.1305
82.22	26.623
82.44	18.3488
82.66	1.46262
82.88	6.06134
83.1	13.8997
83.32	1.61154
83.54	5.25373
83.76	1.10773
83.98	9.38836
84.2	4.09281
84.42	2.35748
84.64	8.19815
84.86	4.08461
85.08	6.63405
85.3	7.68037
85.52	7.70933
85.74	7.92878
85.96	6.4022
86.18	9.24877
86.4	12.2764
86.62	2.07115
86.84	2.96598
87.06	11.0368
87.28	10.2306
87.5	0.286992
87.72	9.27922
87.94	0.039978
88.16	10.9902
88.38	5.54114
88.6	2.5279
88.82	6.73766
89.04	1.78116
89.26	4.61101
89.48	3.73434
89.7	11.1059
89.92	2.08851
